<?xml version="1.0" encoding="UTF-8"?>

<!-- generated on 2022-05-13 22:36:08 by Eclipse SUMO netedit Version 1.12.0
<configuration xmlns:xsi="http://www.w3.org/2001/XMLSchema-instance" xsi:noNamespaceSchemaLocation="http://sumo.dlr.de/xsd/netconvertConfiguration.xsd">

    <input>
        <sumo-net-file value="/home/giacomo/IdeaProjects/Converter/paper/2022-03-24-21-07-39/osm.net.xml"/>
    </input>

    <output>
        <output-file value="/home/giacomo/IdeaProjects/Converter/paper/2022-03-24-21-07-39/osm.net.xml"/>
        <output.street-names value="true"/>
    </output>

    <processing>
        <geometry.min-radius.fix.railways value="false"/>
        <geometry.max-grade.fix value="false"/>
        <offset.disable-normalization value="true"/>
        <lefthand value="false"/>
    </processing>

    <junctions>
        <no-turnarounds value="true"/>
        <junctions.corner-detail value="5"/>
        <junctions.limit-turn-speed value="5.5"/>
        <rectangular-lane-cut value="false"/>
    </junctions>

    <pedestrian>
        <walkingareas value="false"/>
    </pedestrian>

    <report>
        <aggregate-warnings value="5"/>
    </report>

</configuration>
-->

<net version="1.9" junctionCornerDetail="5" limitTurnSpeed="5.50" xmlns:xsi="http://www.w3.org/2001/XMLSchema-instance" xsi:noNamespaceSchemaLocation="http://sumo.dlr.de/xsd/net_file.xsd">

    <location netOffset="-327484.40,-2794110.80" convBoundary="0.00,530.08,1347.31,1366.63" origBoundary="55.286896,25.253658,55.325148,25.277020" projParameter="+proj=utm +zone=40 +ellps=WGS84 +datum=WGS84 +units=m +no_defs"/>

    <type id="highway.bridleway" priority="1" numLanes="1" speed="2.78" allow="pedestrian" oneway="1" width="2.00"/>
    <type id="highway.bus_guideway" priority="1" numLanes="1" speed="27.78" allow="bus" oneway="1"/>
    <type id="highway.cycleway" priority="1" numLanes="1" speed="8.33" allow="bicycle" oneway="0" width="1.00"/>
    <type id="highway.footway" priority="1" numLanes="1" speed="2.78" allow="pedestrian" oneway="1" width="2.00"/>
    <type id="highway.ford" priority="1" numLanes="1" speed="2.78" allow="army" oneway="0"/>
    <type id="highway.living_street" priority="2" numLanes="1" speed="2.78" disallow="tram rail_urban rail rail_electric rail_fast ship" oneway="0"/>
    <type id="highway.motorway" priority="14" numLanes="2" speed="39.44" allow="private emergency authority army vip passenger hov taxi bus coach delivery truck trailer motorcycle evehicle custom1 custom2" oneway="1"/>
    <type id="highway.motorway_link" priority="9" numLanes="1" speed="22.22" allow="private emergency authority army vip passenger hov taxi bus coach delivery truck trailer motorcycle evehicle custom1 custom2" oneway="1"/>
    <type id="highway.path" priority="1" numLanes="1" speed="2.78" allow="pedestrian bicycle" oneway="0" width="2.00"/>
    <type id="highway.pedestrian" priority="1" numLanes="1" speed="2.78" allow="pedestrian" oneway="1" width="2.00"/>
    <type id="highway.primary" priority="12" numLanes="2" speed="27.78" disallow="tram rail_urban rail rail_electric rail_fast ship" oneway="0"/>
    <type id="highway.primary_link" priority="7" numLanes="1" speed="22.22" disallow="tram rail_urban rail rail_electric rail_fast ship" oneway="0"/>
    <type id="highway.raceway" priority="15" numLanes="2" speed="83.33" allow="vip" oneway="0"/>
    <type id="highway.residential" priority="3" numLanes="1" speed="13.89" disallow="tram rail_urban rail rail_electric rail_fast ship" oneway="0"/>
    <type id="highway.secondary" priority="11" numLanes="1" speed="27.78" disallow="tram rail_urban rail rail_electric rail_fast ship" oneway="0"/>
    <type id="highway.secondary_link" priority="6" numLanes="1" speed="22.22" disallow="tram rail_urban rail rail_electric rail_fast ship" oneway="0"/>
    <type id="highway.service" priority="1" numLanes="1" speed="5.56" allow="pedestrian delivery bicycle" oneway="0"/>
    <type id="highway.stairs" priority="1" numLanes="1" speed="1.39" allow="pedestrian" oneway="1" width="2.00"/>
    <type id="highway.step" priority="1" numLanes="1" speed="1.39" allow="pedestrian" oneway="1" width="2.00"/>
    <type id="highway.steps" priority="1" numLanes="1" speed="1.39" allow="pedestrian" oneway="1" width="2.00"/>
    <type id="highway.tertiary" priority="10" numLanes="1" speed="22.22" disallow="tram rail_urban rail rail_electric rail_fast ship" oneway="0"/>
    <type id="highway.tertiary_link" priority="5" numLanes="1" speed="22.22" disallow="tram rail_urban rail rail_electric rail_fast ship" oneway="0"/>
    <type id="highway.track" priority="1" numLanes="1" speed="5.56" allow="pedestrian motorcycle moped bicycle" oneway="0"/>
    <type id="highway.trunk" priority="13" numLanes="2" speed="27.78" disallow="pedestrian bicycle tram rail_urban rail rail_electric rail_fast ship" oneway="0"/>
    <type id="highway.trunk_link" priority="8" numLanes="1" speed="22.22" disallow="pedestrian bicycle tram rail_urban rail rail_electric rail_fast ship" oneway="0"/>
    <type id="highway.unclassified" priority="4" numLanes="1" speed="13.89" disallow="tram rail_urban rail rail_electric rail_fast ship" oneway="0"/>
    <type id="highway.unsurfaced" priority="1" numLanes="1" speed="8.33" disallow="tram rail_urban rail rail_electric rail_fast ship" oneway="0"/>
    <type id="railway.highspeed" priority="21" numLanes="1" speed="69.44" allow="rail_fast" oneway="1"/>
    <type id="railway.light_rail" priority="19" numLanes="1" speed="27.78" allow="rail_urban" oneway="1"/>
    <type id="railway.preserved" priority="16" numLanes="1" speed="27.78" allow="rail" oneway="1"/>
    <type id="railway.rail" priority="20" numLanes="1" speed="44.44" allow="rail" oneway="1"/>
    <type id="railway.subway" priority="18" numLanes="1" speed="27.78" allow="rail_urban" oneway="1"/>
    <type id="railway.tram" priority="17" numLanes="1" speed="13.89" allow="tram" oneway="1"/>

    <edge id=":1050212586_0" function="internal">
        <lane id=":1050212586_0_0" index="0" disallow="tram rail_urban rail rail_electric rail_fast ship" speed="10.49" length="16.29" shape="627.36,690.65 622.67,690.31 618.66,690.98 615.32,692.66 612.66,695.36"/>
    </edge>
    <edge id=":1050212586_1" function="internal">
        <lane id=":1050212586_1_0" index="0" disallow="tram rail_urban rail rail_electric rail_fast ship" speed="16.67" length="16.08" shape="627.36,690.65 611.53,689.13"/>
        <lane id=":1050212586_1_1" index="1" disallow="tram rail_urban rail rail_electric rail_fast ship" speed="16.67" length="16.08" shape="627.89,687.50 611.88,685.95"/>
        <lane id=":1050212586_1_2" index="2" disallow="tram rail_urban rail rail_electric rail_fast ship" speed="16.67" length="16.08" shape="628.42,684.34 612.23,682.77"/>
    </edge>
    <edge id=":1066671610_0" function="internal">
        <lane id=":1066671610_0_0" index="0" disallow="tram rail_urban rail rail_electric rail_fast ship" speed="9.13" length="5.39" shape="1035.92,856.00 1037.12,857.06 1038.02,857.73 1039.05,858.12 1040.60,858.33"/>
    </edge>
    <edge id=":1066671610_1" function="internal">
        <lane id=":1066671610_1_0" index="0" disallow="tram rail_urban rail rail_electric rail_fast ship" speed="7.45" length="1.54" shape="1035.98,860.38 1037.18,859.42"/>
    </edge>
    <edge id=":1066671610_2" function="internal">
        <lane id=":1066671610_2_0" index="0" disallow="tram rail_urban rail rail_electric rail_fast ship" speed="7.45" length="3.65" shape="1037.18,859.42 1038.35,858.76 1039.49,858.40 1040.60,858.33"/>
    </edge>
    <edge id=":1066671701_0" function="internal">
        <lane id=":1066671701_0_0" index="0" disallow="tram rail_urban rail rail_electric rail_fast ship" speed="13.89" length="7.71" shape="847.51,892.69 845.90,885.15"/>
    </edge>
    <edge id=":1066671701_1" function="internal">
        <lane id=":1066671701_1_0" index="0" disallow="tram rail_urban rail rail_electric rail_fast ship" speed="8.93" length="7.35" shape="843.31,891.87 844.61,889.80 845.48,887.99 845.90,886.44 845.90,885.15"/>
    </edge>
    <edge id=":1066671729_0" function="internal">
        <lane id=":1066671729_0_0" index="0" disallow="tram rail_urban rail rail_electric rail_fast ship" speed="13.89" length="10.94" shape="940.34,810.73 940.98,821.65"/>
    </edge>
    <edge id=":1066671729_1" function="internal">
        <lane id=":1066671729_1_0" index="0" disallow="tram rail_urban rail rail_electric rail_fast ship" speed="6.57" length="8.93" shape="940.34,810.73 940.19,813.11 939.29,814.91 937.64,816.13 935.24,816.77"/>
    </edge>
    <edge id=":1066671779_0" function="internal">
        <lane id=":1066671779_0_0" index="0" disallow="tram rail_urban rail rail_electric rail_fast ship" speed="18.05" length="16.04" shape="1010.38,1003.61 1014.26,1003.84 1018.35,1003.55 1022.44,1003.00 1026.32,1002.42"/>
    </edge>
    <edge id=":1066671779_1" function="internal">
        <lane id=":1066671779_1_0" index="0" disallow="tram rail_urban rail rail_electric rail_fast ship" speed="22.22" length="18.86" shape="1010.38,1003.61 1029.03,1006.42"/>
    </edge>
    <edge id=":1066671779_2" function="internal">
        <lane id=":1066671779_2_0" index="0" disallow="tram rail_urban rail rail_electric rail_fast ship" speed="22.22" length="18.82" shape="1010.38,1003.61 1014.58,1004.64 1019.36,1006.31 1024.08,1008.18 1028.12,1009.82"/>
    </edge>
    <edge id=":1066671779_3" function="internal">
        <lane id=":1066671779_3_0" index="0" disallow="tram rail_urban rail rail_electric rail_fast ship" speed="10.14" length="14.94" shape="1012.63,1007.36 1013.92,1005.84 1016.62,1004.51 1020.76,1003.37 1026.32,1002.42"/>
    </edge>
    <edge id=":1066671779_4" function="internal">
        <lane id=":1066671779_4_0" index="0" disallow="tram rail_urban rail rail_electric rail_fast ship" speed="9.37" length="16.98" shape="1012.63,1007.36 1014.08,1006.09 1017.30,1005.51 1022.28,1005.62 1029.03,1006.42"/>
    </edge>
    <edge id=":1066671779_5" function="internal">
        <lane id=":1066671779_5_0" index="0" disallow="tram rail_urban rail rail_electric rail_fast ship" speed="8.44" length="16.38" shape="1012.63,1007.36 1014.03,1006.30 1017.07,1006.36 1021.77,1007.53 1028.12,1009.82"/>
    </edge>
    <edge id=":1066671804_0" function="internal">
        <lane id=":1066671804_0_0" index="0" disallow="tram rail_urban rail rail_electric rail_fast ship" speed="9.50" length="8.85" shape="124.00,976.88 122.84,974.99 121.36,973.44 119.54,972.24 117.40,971.38"/>
    </edge>
    <edge id=":1066671804_1" function="internal">
        <lane id=":1066671804_1_0" index="0" allow="pedestrian bus delivery bicycle" speed="9.72" length="15.00" shape="132.20,973.54 128.45,973.38 124.72,972.97 121.03,972.31 117.40,971.38"/>
    </edge>
    <edge id=":1066671804_2" function="internal">
        <lane id=":1066671804_2_0" index="0" disallow="tram rail_urban rail rail_electric rail_fast ship" speed="12.43" length="15.31" shape="132.14,969.36 128.50,971.08 124.83,972.00 121.13,972.09 117.40,971.38"/>
    </edge>
    <edge id=":1066671913_0" function="internal">
        <lane id=":1066671913_0_0" index="0" disallow="tram rail_urban rail rail_electric rail_fast ship" speed="13.89" length="7.79" shape="168.00,742.59 167.47,734.82"/>
    </edge>
    <edge id=":1066671913_1" function="internal">
        <lane id=":1066671913_1_0" index="0" disallow="tram rail_urban rail rail_electric rail_fast ship" speed="7.30" length="7.73" shape="163.29,740.83 165.21,739.53 166.54,738.10 167.30,736.53 167.47,734.82"/>
    </edge>
    <edge id=":1066671916_0" function="internal">
        <lane id=":1066671916_0_0" index="0" disallow="tram rail_urban rail rail_electric rail_fast ship" speed="7.52" length="5.58" shape="162.51,895.86 161.25,895.86 159.99,896.18 158.72,896.82 157.45,897.79"/>
    </edge>
    <edge id=":1066671916_1" function="internal">
        <lane id=":1066671916_1_0" index="0" disallow="tram rail_urban rail rail_electric rail_fast ship" speed="8.51" length="5.77" shape="162.51,895.86 160.87,895.56 159.79,895.07 158.89,894.26 157.77,892.98"/>
    </edge>
    <edge id=":1066671953_0" function="internal">
        <lane id=":1066671953_0_0" index="0" disallow="tram rail_urban rail rail_electric rail_fast ship" speed="9.68" length="9.89" shape="1085.43,1032.10 1084.93,1033.74 1084.65,1036.91 1084.51,1040.17 1084.41,1042.08"/>
        <lane id=":1066671953_0_1" index="1" disallow="tram rail_urban rail rail_electric rail_fast ship" speed="12.78" length="9.89" shape="1080.19,1032.57 1079.15,1034.77 1079.80,1036.67 1080.91,1038.78 1081.24,1041.63"/>
    </edge>
    <edge id=":1066671953_2" function="internal">
        <lane id=":1066671953_2_0" index="0" disallow="tram rail_urban rail rail_electric rail_fast ship" speed="9.27" length="8.52" shape="1074.27,1033.76 1076.06,1036.08 1077.30,1038.10 1077.97,1039.80 1078.07,1041.19"/>
    </edge>
    <edge id=":1066671966_0" function="internal">
        <lane id=":1066671966_0_0" index="0" disallow="tram rail_urban rail rail_electric rail_fast ship" speed="22.22" length="11.17" shape="601.49,1212.95 590.61,1210.41"/>
    </edge>
    <edge id=":1066671966_1" function="internal">
        <lane id=":1066671966_1_0" index="0" disallow="tram rail_urban rail rail_electric rail_fast ship" speed="6.47" length="9.03" shape="601.49,1212.95 599.19,1212.03 597.74,1210.59 597.17,1208.64 597.45,1206.17"/>
    </edge>
    <edge id=":1066671977_0" function="internal">
        <lane id=":1066671977_0_0" index="0" allow="pedestrian delivery bicycle" speed="4.51" length="5.68" shape="592.37,903.10 591.68,904.51 591.86,905.49 592.91,906.04 594.84,906.15"/>
    </edge>
    <edge id=":1066671977_1" function="internal">
        <lane id=":1066671977_1_0" index="0" allow="pedestrian delivery bicycle" speed="3.65" length="4.67" shape="592.37,903.10 591.03,903.63 590.14,903.51 589.71,902.72 589.74,901.28"/>
    </edge>
    <edge id=":1066671977_2" function="internal">
        <lane id=":1066671977_2_0" index="0" allow="pedestrian delivery bicycle" speed="5.73" length="6.77" shape="584.24,903.78 585.54,904.28 586.89,904.03 588.29,903.03 589.74,901.28"/>
    </edge>
    <edge id=":1066671977_3" function="internal">
        <lane id=":1066671977_3_0" index="0" disallow="tram rail_urban rail rail_electric rail_fast ship" speed="12.75" length="11.17" shape="584.24,903.78 586.93,905.38 589.21,906.11 591.65,906.27 594.84,906.15"/>
    </edge>
    <edge id=":1066672074_0" function="internal">
        <lane id=":1066672074_0_0" index="0" disallow="tram rail_urban rail rail_electric rail_fast ship" speed="7.50" length="7.63" shape="575.56,1001.70 576.81,1003.66 578.18,1005.06 579.67,1005.91 581.27,1006.20"/>
    </edge>
    <edge id=":1066672074_1" function="internal">
        <lane id=":1066672074_1_0" index="0" disallow="tram rail_urban rail rail_electric rail_fast ship" speed="22.22" length="8.39" shape="572.88,1006.12 581.27,1006.20"/>
    </edge>
    <edge id=":1066672076_0" function="internal">
        <lane id=":1066672076_0_0" index="0" disallow="tram rail_urban rail rail_electric rail_fast ship" speed="22.22" length="4.90" shape="418.67,1205.44 417.27,1205.83 416.29,1206.07 415.31,1206.19 413.86,1206.23"/>
    </edge>
    <edge id=":1066672076_1" function="internal">
        <lane id=":1066672076_1_0" index="0" disallow="tram rail_urban rail rail_electric rail_fast ship" speed="8.50" length="3.88" shape="417.47,1201.94 416.50,1202.54 415.77,1202.87 414.99,1203.00 413.85,1203.03"/>
    </edge>
    <edge id=":1066672088_0" function="internal">
        <lane id=":1066672088_0_0" index="0" disallow="tram rail_urban rail rail_electric rail_fast ship" speed="7.35" length="7.44" shape="298.38,926.85 298.70,928.46 299.56,929.91 300.94,931.20 302.86,932.32"/>
    </edge>
    <edge id=":1066672088_1" function="internal">
        <lane id=":1066672088_1_0" index="0" disallow="tram rail_urban rail rail_electric rail_fast ship" speed="13.89" length="8.21" shape="298.38,926.85 298.28,935.06"/>
    </edge>
    <edge id=":1066672095_0" function="internal">
        <lane id=":1066672095_0_0" index="0" disallow="tram rail_urban rail rail_electric rail_fast ship" speed="22.22" length="5.25" shape="895.29,990.84 896.83,990.62 897.90,990.50 898.96,990.47 900.52,990.48"/>
    </edge>
    <edge id=":1066672103_0" function="internal">
        <lane id=":1066672103_0_0" index="0" disallow="tram rail_urban rail rail_electric rail_fast ship" speed="6.07" length="8.14" shape="865.70,995.24 867.59,994.60 868.76,993.34 869.22,991.47 868.96,988.99"/>
    </edge>
    <edge id=":1066672103_1" function="internal">
        <lane id=":1066672103_1_0" index="0" disallow="tram rail_urban rail rail_electric rail_fast ship" speed="22.22" length="10.04" shape="865.70,995.24 875.63,993.76"/>
    </edge>
    <edge id=":1066672168_0" function="internal">
        <lane id=":1066672168_0_0" index="0" allow="pedestrian delivery bicycle" speed="11.02" length="7.29" shape="1059.21,1172.38 1057.21,1171.55 1055.77,1171.09 1054.28,1171.02 1052.19,1171.38"/>
    </edge>
    <edge id=":1066672168_1" function="internal">
        <lane id=":1066672168_1_0" index="0" allow="pedestrian delivery bicycle" speed="3.65" length="4.67" shape="1059.21,1172.38 1058.40,1171.19 1058.33,1170.29 1059.01,1169.70 1060.42,1169.42"/>
    </edge>
    <edge id=":1066672168_2" function="internal">
        <lane id=":1066672168_2_0" index="0" allow="pedestrian delivery bicycle" speed="5.22" length="5.35" shape="1058.93,1164.93 1058.55,1166.47 1058.66,1167.73 1059.29,1168.71 1060.42,1169.42"/>
    </edge>
    <edge id=":1066672168_3" function="internal">
        <lane id=":1066672168_3_0" index="0" disallow="tram rail_urban rail rail_electric rail_fast ship" speed="8.83" length="9.73" shape="1058.93,1164.93 1057.73,1167.37 1056.21,1169.25 1054.36,1170.59 1052.19,1171.38"/>
    </edge>
    <edge id=":1066672184_0" function="internal">
        <lane id=":1066672184_0_0" index="0" disallow="tram rail_urban rail rail_electric rail_fast ship" speed="9.61" length="7.86" shape="295.12,1003.31 295.27,1005.52 295.96,1006.93 297.13,1008.18 298.76,1009.89"/>
    </edge>
    <edge id=":1066672184_1" function="internal">
        <lane id=":1066672184_1_0" index="0" disallow="tram rail_urban rail rail_electric rail_fast ship" speed="13.89" length="7.96" shape="295.12,1003.31 294.87,1011.27"/>
    </edge>
    <edge id=":1066672214_0" function="internal">
        <lane id=":1066672214_0_0" index="0" disallow="tram rail_urban rail rail_electric rail_fast ship" speed="8.84" length="7.89" shape="825.10,782.28 824.56,781.02 823.45,779.71 821.77,778.35 819.53,776.95"/>
    </edge>
    <edge id=":1066672214_1" function="internal">
        <lane id=":1066672214_1_0" index="0" disallow="tram rail_urban rail rail_electric rail_fast ship" speed="13.89" length="8.32" shape="825.10,782.28 822.90,774.25"/>
    </edge>
    <edge id=":1066672275_0" function="internal">
        <lane id=":1066672275_0_0" index="0" disallow="tram rail_urban rail rail_electric rail_fast ship" speed="18.05" length="12.53" shape="460.74,1038.62 462.76,1035.45 464.36,1033.42 466.07,1031.47 468.45,1028.53"/>
        <lane id=":1066672275_0_1" index="1" disallow="tram rail_urban rail rail_electric rail_fast ship" speed="18.05" length="12.53" shape="463.49,1040.25 465.46,1037.17 467.01,1035.21 468.68,1033.32 470.99,1030.48"/>
    </edge>
    <edge id=":1066672275_2" function="internal">
        <lane id=":1066672275_2_0" index="0" disallow="tram rail_urban rail rail_electric rail_fast ship" speed="22.22" length="11.73" shape="466.24,1041.88 468.13,1038.82 469.65,1036.73 471.29,1034.94 473.54,1032.76"/>
    </edge>
    <edge id=":1066672277_0" function="internal">
        <lane id=":1066672277_0_0" index="0" allow="pedestrian delivery bicycle" speed="5.69" length="5.86" shape="936.12,725.11 934.92,725.67 934.11,726.64 933.70,728.04 933.67,729.86"/>
    </edge>
    <edge id=":1066672277_1" function="internal">
        <lane id=":1066672277_1_0" index="0" allow="pedestrian delivery bicycle" speed="3.65" length="4.67" shape="936.12,725.11 934.76,724.62 934.18,723.94 934.38,723.07 935.36,722.01"/>
    </edge>
    <edge id=":1066672277_2" function="internal">
        <lane id=":1066672277_2_0" index="0" allow="pedestrian delivery bicycle" speed="11.11" length="8.40" shape="927.56,724.99 929.95,724.41 931.49,723.65 933.01,722.81 935.36,722.01"/>
    </edge>
    <edge id=":1066672277_3" function="internal">
        <lane id=":1066672277_3_0" index="0" disallow="tram rail_urban rail rail_electric rail_fast ship" speed="6.38" length="9.04" shape="927.56,724.99 930.06,724.99 931.91,725.80 933.11,727.43 933.67,729.86"/>
    </edge>
    <edge id=":1066672309_0" function="internal">
        <lane id=":1066672309_0_0" index="0" disallow="tram rail_urban rail rail_electric rail_fast ship" speed="8.85" length="4.90" shape="691.61,1106.87 687.87,1103.71"/>
    </edge>
    <edge id=":1066672309_1" function="internal">
        <lane id=":1066672309_1_0" index="0" disallow="tram rail_urban rail rail_electric rail_fast ship" speed="9.44" length="3.67" shape="692.33,1103.75 691.28,1103.49 690.57,1103.23 689.94,1102.82 689.12,1102.12"/>
    </edge>
    <edge id=":1066672327_0" function="internal">
        <lane id=":1066672327_0_0" index="0" disallow="tram rail_urban rail rail_electric rail_fast ship" speed="6.51" length="9.04" shape="739.57,777.76 739.10,775.33 737.96,773.63 736.16,772.67 733.69,772.45"/>
    </edge>
    <edge id=":1066672327_1" function="internal">
        <lane id=":1066672327_1_0" index="0" disallow="tram rail_urban rail rail_electric rail_fast ship" speed="3.65" length="1.44" shape="739.57,777.76 740.31,776.52"/>
    </edge>
    <edge id=":1066672327_4" function="internal">
        <lane id=":1066672327_4_0" index="0" disallow="tram rail_urban rail rail_electric rail_fast ship" speed="3.65" length="3.23" shape="740.31,776.52 741.09,776.08 741.91,776.44 742.77,777.59"/>
    </edge>
    <edge id=":1066672327_2" function="internal">
        <lane id=":1066672327_2_0" index="0" disallow="tram rail_urban rail rail_electric rail_fast ship" speed="6.50" length="9.03" shape="748.07,771.71 745.64,772.19 743.95,773.33 742.99,775.13 742.77,777.59"/>
    </edge>
    <edge id=":1066672327_3" function="internal">
        <lane id=":1066672327_3_0" index="0" disallow="tram rail_urban rail rail_electric rail_fast ship" speed="13.89" length="14.40" shape="748.07,771.71 733.69,772.45"/>
    </edge>
    <edge id=":1066672330_0" function="internal">
        <lane id=":1066672330_0_0" index="0" disallow="tram rail_urban rail rail_electric rail_fast ship" speed="7.59" length="7.55" shape="487.37,948.79 489.39,947.66 490.88,946.39 491.83,944.99 492.25,943.45"/>
    </edge>
    <edge id=":1066672330_1" function="internal">
        <lane id=":1066672330_1_0" index="0" disallow="tram rail_urban rail rail_electric rail_fast ship" speed="13.89" length="8.26" shape="491.54,951.70 492.25,943.45"/>
        <lane id=":1066672330_1_1" index="1" disallow="tram rail_urban rail rail_electric rail_fast ship" speed="13.89" length="8.26" shape="494.72,951.96 495.43,943.75"/>
    </edge>
    <edge id=":1066672335_0" function="internal">
        <lane id=":1066672335_0_0" index="0" disallow="tram rail_urban rail rail_electric rail_fast ship" speed="13.89" length="8.72" shape="835.19,830.49 833.46,821.95"/>
    </edge>
    <edge id=":1066672335_1" function="internal">
        <lane id=":1066672335_1_0" index="0" disallow="tram rail_urban rail rail_electric rail_fast ship" speed="7.19" length="7.77" shape="839.15,826.55 836.95,825.89 835.26,824.90 834.10,823.59 833.46,821.95"/>
    </edge>
    <edge id=":1066672336_0" function="internal">
        <lane id=":1066672336_0_0" index="0" disallow="tram rail_urban rail rail_electric rail_fast ship" speed="22.22" length="4.59" shape="1027.42,1175.80 1026.06,1175.82 1025.12,1175.77 1024.20,1175.64 1022.86,1175.40"/>
    </edge>
    <edge id=":1066672336_1" function="internal">
        <lane id=":1066672336_1_0" index="0" disallow="tram rail_urban rail rail_electric rail_fast ship" speed="8.18" length="3.93" shape="1027.34,1172.60 1026.19,1172.61 1025.39,1172.49 1024.65,1172.16 1023.67,1171.55"/>
    </edge>
    <edge id=":1066672356_0" function="internal">
        <lane id=":1066672356_0_0" index="0" allow="pedestrian delivery bicycle" speed="9.52" length="6.14" shape="19.22,1046.36 17.80,1045.79 16.64,1046.30 15.37,1047.12 13.59,1047.53"/>
    </edge>
    <edge id=":1066672414_0" function="internal">
        <lane id=":1066672414_0_0" index="0" disallow="tram rail_urban rail rail_electric rail_fast ship" speed="6.49" length="9.03" shape="1102.18,1011.73 1102.19,1014.21 1102.99,1016.08 1104.58,1017.36 1106.96,1018.03"/>
    </edge>
    <edge id=":1066672414_1" function="internal">
        <lane id=":1066672414_1_0" index="0" disallow="tram rail_urban rail rail_electric rail_fast ship" speed="22.22" length="11.23" shape="1095.85,1016.46 1106.96,1018.03"/>
    </edge>
    <edge id=":1066672417_0" function="internal">
        <lane id=":1066672417_0_0" index="0" disallow="tram rail_urban rail rail_electric rail_fast ship" speed="3.65" length="4.67" shape="681.53,834.31 680.55,833.25 680.34,832.38 680.91,831.70 682.27,831.19"/>
    </edge>
    <edge id=":1066672447_0" function="internal">
        <lane id=":1066672447_0_0" index="0" disallow="tram rail_urban rail rail_electric rail_fast ship" speed="13.89" length="11.28" shape="814.70,747.22 811.64,736.36"/>
    </edge>
    <edge id=":1066672447_1" function="internal">
        <lane id=":1066672447_1_0" index="0" disallow="tram rail_urban rail rail_electric rail_fast ship" speed="6.23" length="9.05" shape="814.70,747.22 814.32,744.72 814.88,742.80 816.36,741.47 818.78,740.72"/>
    </edge>
    <edge id=":1066672450_0" function="internal">
        <lane id=":1066672450_0_0" index="0" disallow="tram rail_urban rail rail_electric rail_fast ship" speed="9.87" length="7.63" shape="578.17,894.02 578.13,896.18 578.65,897.62 579.64,898.95 581.00,900.78"/>
    </edge>
    <edge id=":1066672450_1" function="internal">
        <lane id=":1066672450_1_0" index="0" disallow="tram rail_urban rail rail_electric rail_fast ship" speed="13.89" length="6.43" shape="578.17,894.02 577.23,900.38"/>
    </edge>
    <edge id=":1066672526_0" function="internal">
        <lane id=":1066672526_0_0" index="0" disallow="tram rail_urban rail rail_electric rail_fast ship" speed="7.53" length="7.61" shape="946.26,989.27 947.24,991.38 948.40,992.96 949.75,994.00 951.28,994.52"/>
    </edge>
    <edge id=":1066672526_1" function="internal">
        <lane id=":1066672526_1_0" index="0" disallow="tram rail_urban rail rail_electric rail_fast ship" speed="22.22" length="8.36" shape="943.02,993.25 951.28,994.52"/>
    </edge>
    <edge id=":1066672539_0" function="internal">
        <lane id=":1066672539_0_0" index="0" disallow="tram rail_urban rail rail_electric rail_fast ship" speed="22.22" length="8.08" shape="689.24,1007.22 697.31,1007.40"/>
    </edge>
    <edge id=":1066672539_1" function="internal">
        <lane id=":1066672539_1_0" index="0" disallow="tram rail_urban rail rail_electric rail_fast ship" speed="8.84" length="7.66" shape="690.87,1011.22 692.76,1009.50 694.46,1008.29 695.98,1007.59 697.31,1007.40"/>
    </edge>
    <edge id=":1066672553_0" function="internal">
        <lane id=":1066672553_0_0" index="0" disallow="tram rail_urban rail rail_electric rail_fast ship" speed="7.67" length="11.87" shape="1036.84,780.87 1033.26,781.75 1030.73,783.23 1029.24,785.30 1028.81,787.97"/>
    </edge>
    <edge id=":1066672553_1" function="internal">
        <lane id=":1066672553_1_0" index="0" disallow="tram rail_urban rail rail_electric rail_fast ship" speed="13.89" length="10.73" shape="1036.84,780.87 1033.82,781.50 1031.64,782.23 1029.46,782.90 1026.42,783.34"/>
    </edge>
    <edge id=":1066672553_2" function="internal">
        <lane id=":1066672553_2_0" index="0" disallow="tram rail_urban rail rail_electric rail_fast ship" speed="6.34" length="1.24" shape="1026.19,780.15 1027.24,780.57 1027.30,780.67"/>
    </edge>
    <edge id=":1066672553_3" function="internal">
        <lane id=":1066672553_3_0" index="0" disallow="tram rail_urban rail rail_electric rail_fast ship" speed="3.65" length="1.44" shape="1026.19,780.15 1027.45,780.86"/>
    </edge>
    <edge id=":1066672553_4" function="internal">
        <lane id=":1066672553_4_0" index="0" disallow="tram rail_urban rail rail_electric rail_fast ship" speed="6.34" length="7.55" shape="1027.30,780.67 1028.03,782.02 1028.55,784.48 1028.81,787.97"/>
    </edge>
    <edge id=":1066672553_5" function="internal">
        <lane id=":1066672553_5_0" index="0" disallow="tram rail_urban rail rail_electric rail_fast ship" speed="3.65" length="3.23" shape="1027.45,780.86 1027.90,781.63 1027.56,782.46 1026.42,783.34"/>
    </edge>
    <edge id=":1066672567_0" function="internal">
        <lane id=":1066672567_0_0" index="0" disallow="tram rail_urban rail rail_electric rail_fast ship" speed="13.89" length="10.82" shape="603.21,1156.73 614.03,1156.92"/>
    </edge>
    <edge id=":1066672567_1" function="internal">
        <lane id=":1066672567_1_0" index="0" disallow="tram rail_urban rail rail_electric rail_fast ship" speed="6.56" length="3.97" shape="608.34,1162.31 608.83,1159.92 609.67,1158.64"/>
    </edge>
    <edge id=":1066672567_2" function="internal">
        <lane id=":1066672567_2_0" index="0" disallow="tram rail_urban rail rail_electric rail_fast ship" speed="6.56" length="4.87" shape="609.67,1158.64 609.94,1158.22 611.68,1157.22 614.03,1156.92"/>
    </edge>
    <edge id=":1066672597_0" function="internal">
        <lane id=":1066672597_0_0" index="0" disallow="tram rail_urban rail rail_electric rail_fast ship" speed="13.89" length="8.45" shape="1110.10,863.83 1118.49,864.75"/>
    </edge>