<?xml version="1.0" encoding="UTF-8"?>

<!-- generated on 2022-03-24 21:07:47 by Eclipse SUMO polyconvert Version 1.12.0
<configuration xmlns:xsi="http://www.w3.org/2001/XMLSchema-instance" xsi:noNamespaceSchemaLocation="http://sumo.dlr.de/xsd/polyconvertConfiguration.xsd">

    <input>
        <net-file value="osm.net.xml"/>
        <osm-files value="osm_bbox.osm.xml"/>
        <osm.keep-full-type value="true"/>
        <type-file value="C:\Program%20Files%20(x86)\Eclipse\Sumo\data\typemap\osmPolyconvert.typ.xml"/>
    </input>

    <output>
        <output-file value="osm.poly.xml"/>
    </output>

    <processing>
        <poi-layer-offset value="5"/>
    </processing>

    <report>
        <verbose value="true"/>
    </report>

</configuration>
-->

<additional xmlns:xsi="http://www.w3.org/2001/XMLSchema-instance" xsi:noNamespaceSchemaLocation="http://sumo.dlr.de/xsd/additional_file.xsd">
    <location netOffset="-327484.40,-2794110.80" convBoundary="-675.87,-754.80,3862.99,2590.71" origBoundary="55.280369,25.246593,55.325148,25.277020" projParameter="+proj=utm +zone=40 +ellps=WGS84 +datum=WGS84 +units=m +no_defs"/>

    <poly id="165185459" type="amenity.parking" color="184,184,179" fill="1" layer="-1.00" shape="431.495825,1194.364143 432.133844,1138.455416 442.575900,1134.145985 474.305448,1142.615686 480.066147,1146.452960 476.666842,1197.544570 429.653599,1198.420065 431.495825,1194.364143"/>
    <poly id="165285917" type="building.yes" color="255,230,230" fill="1" layer="-1.00" shape="603.759384,1199.272948 613.202986,1166.361382 656.677082,1178.692424 647.243460,1211.603827 603.759384,1199.272948"/>
    <poly id="165285930" type="amenity.parking" color="184,184,179" fill="1" layer="-1.00" shape="292.297229,1190.487374 291.852190,1155.563452 279.144251,1155.182563 278.892370,1114.074538 409.677189,1114.557651 409.109442,1155.410211 342.370956,1155.451538 342.809091,1189.843788 292.297229,1190.487374"/>
    <poly id="165285930#1" type="building.yes" color="255,230,230" fill="1" layer="-1.00" shape="292.297229,1190.487374 291.852190,1155.563452 279.144251,1155.182563 278.892370,1114.074538 409.677189,1114.557651 409.109442,1155.410211 342.370956,1155.451538 342.809091,1189.843788 292.297229,1190.487374"/>
    <poly id="165285935" type="building.yes" color="255,230,230" fill="1" layer="-1.00" shape="352.186187,1162.039896 351.502132,1192.956804 409.584927,1192.748777 410.275943,1161.576994 352.186187,1162.039896"/>
    <poly id="174965661" type="building.yes" color="255,230,230" fill="1" layer="-1.00" shape="505.539057,1162.779268 505.966794,1153.645390 511.519381,1153.796286 511.209688,1162.707097 505.539057,1162.779268"/>
    <poly id="174965684" type="building.yes" color="255,230,230" fill="1" layer="-1.00" shape="1038.057572,1191.218677 1038.710017,1179.124119 1064.390814,1180.138766 1063.989919,1190.623796 1038.057572,1191.218677"/>
    <poly id="174965686" type="amenity.place_of_worship" color="237,199,199" fill="1" layer="-1.00" shape="1026.440591,1223.614625 1027.803460,1217.493261 1033.731431,1190.863676 973.444544,1177.725647 971.094416,1189.398634 970.128476,1189.488442 969.224937,1189.732552 968.245039,1190.309977 967.610405,1191.104582 967.229261,1192.028908 967.090974,1193.038777 967.164763,1194.090267 967.500428,1195.138432 967.902379,1195.853411 968.393714,1196.467552 969.075014,1196.968500 969.824147,1197.258102 967.549695,1210.924201 1022.309155,1222.725405 1026.440591,1223.614625"/>
    <poly id="174965686#1" type="building.yes" color="255,230,230" fill="1" layer="-1.00" shape="1026.440591,1223.614625 1027.803460,1217.493261 1033.731431,1190.863676 973.444544,1177.725647 971.094416,1189.398634 970.128476,1189.488442 969.224937,1189.732552 968.245039,1190.309977 967.610405,1191.104582 967.229261,1192.028908 967.090974,1193.038777 967.164763,1194.090267 967.500428,1195.138432 967.902379,1195.853411 968.393714,1196.467552 969.075014,1196.968500 969.824147,1197.258102 967.549695,1210.924201 1022.309155,1222.725405 1026.440591,1223.614625"/>
    <poly id="174965689" type="building.yes" color="255,230,230" fill="1" layer="-1.00" shape="445.741683,1124.855382 450.842621,1100.606732 478.361051,1107.468330 473.381279,1130.951029 445.741683,1124.855382"/>
    <poly id="175192759" type="building.yes" color="255,230,230" fill="1" layer="-1.00" shape="1117.549307,1195.970963 1118.215512,1167.480559 1121.500575,1167.560758 1121.796217,1155.127312 1180.462793,1156.477222 1179.682521,1189.488948 1201.014885,1189.982916 1200.604006,1207.635629 1235.580143,1208.444146 1233.970095,1276.938635 1174.427231,1275.555326 1174.806102,1259.354253 1169.939047,1259.238709 1170.570435,1231.967352 1175.155341,1232.075396 1175.324393,1224.750589 1164.078881,1224.494351 1164.374698,1212.071983 1130.345752,1211.284874 1130.534743,1203.151106 1121.375120,1202.945998 1121.539692,1196.064372 1117.549307,1195.970963"/>
    <poly id="175192760" type="building.yes" color="255,230,230" fill="1" layer="-1.00" shape="621.704502,1129.074845 620.795532,1113.842817 642.298622,1112.694171 642.217958,1127.739377 621.704502,1129.074845"/>
    <poly id="175192761" type="building.yes" color="255,230,230" fill="1" layer="-1.00" shape="620.890687,1107.859385 619.464437,1080.470084 678.336169,1078.104043 675.720174,1106.087566 620.890687,1107.859385"/>
    <poly id="175192762" type="building.yes" color="255,230,230" fill="1" layer="-1.00" shape="1018.719851,1072.440222 1028.346047,1035.571805 1032.564730,1027.453376 1038.663923,1025.426236 1066.034928,1031.803449 1060.911768,1046.447301 1064.617735,1047.940154 1061.005172,1083.192385 1018.719851,1072.440222"/>
    <poly id="175192768" type="building.yes" color="255,230,230" fill="1" layer="-1.00" shape="281.520768,1192.264280 282.437430,1179.612361 290.810928,1179.782608 290.172841,1192.951652 281.520768,1192.264280"/>
    <poly id="175192769" type="building.yes" color="255,230,230" fill="1" layer="-1.00" shape="282.647834,1174.779580 281.925940,1160.819157 290.843206,1160.971397 290.470522,1174.414014 282.647834,1174.779580"/>
    <poly id="175192771" type="building.yes" color="255,230,230" fill="1" layer="-1.00" shape="587.216572,1200.724143 598.962626,1160.338730 572.918325,1160.060746 566.920496,1197.758599 587.216572,1200.724143"/>
    <poly id="175192778" type="building.yes" color="255,230,230" fill="1" layer="-1.00" shape="1083.299690,1072.163763 1092.069710,1039.261168 1098.930111,1040.858038 1100.483609,1035.465427 1140.796833,1039.252536 1132.176420,1083.962513 1083.299690,1072.163763"/>
    <poly id="175192779" type="building.yes" color="255,230,230" fill="1" layer="-1.00" shape="522.452457,1185.695291 524.446297,1165.053394 520.931111,1165.098129 520.750670,1158.043614 545.170057,1158.873926 543.384779,1195.908892 522.871426,1197.244517 522.928809,1194.629333 519.060337,1195.409725 519.610305,1188.755808 522.452457,1185.695291"/>
    <poly id="175192781" type="building.yes" color="255,230,230" fill="1" layer="-1.00" shape="545.013300,1196.431001 546.354585,1174.379405 549.144627,1160.097346 570.508125,1161.442949 566.369836,1197.233852 545.013300,1196.431001"/>
    <poly id="175192782" type="building.yes" color="255,230,230" fill="1" layer="-1.00" shape="1158.456124,1076.583590 1156.216241,1092.198958 1160.554025,1092.675712 1158.487151,1113.196511 1107.625026,1108.468564 1095.970777,1105.381550 1091.282469,1097.918942 1089.932766,1084.431781 1092.397108,1079.371039 1134.033177,1088.979531 1137.996406,1074.217481 1158.456124,1076.583590"/>
    <poly id="175192785" type="building.yes" color="255,230,230" fill="1" layer="-1.00" shape="276.583925,1186.677309 257.197824,1171.337342 279.219679,1160.310813 282.562153,1168.056198 270.565142,1173.659570 280.833032,1180.984348 276.583925,1186.677309"/>
    <poly id="175192786" type="amenity.parking" color="184,184,179" fill="1" layer="-1.00" shape="926.587938,1209.184257 927.896899,1186.125038 962.046450,1187.674506 960.331785,1202.585333 926.587938,1209.184257"/>
    <poly id="175192789" type="building.yes" color="255,230,230" fill="1" layer="-1.00" shape="248.246297,1209.593722 254.684059,1200.948206 258.609462,1203.844978 263.373414,1197.447522 259.071811,1194.278589 261.240908,1191.370607 269.183211,1197.229459 271.064875,1194.690723 284.905622,1204.916773 278.041659,1214.110536 272.977173,1210.364176 274.373728,1206.912132 269.703181,1203.249378 266.986611,1206.673934 268.102022,1209.617600 261.271254,1219.043593 248.246297,1209.593722"/>
    <poly id="175192791" type="building.yes" color="255,230,230" fill="1" layer="-1.00" shape="667.590731,1146.504452 658.551051,1150.984202 652.520357,1151.260297 653.192825,1135.221607 674.154596,1131.908568 667.590731,1146.504452"/>
    <poly id="175192795" type="building.yes" color="255,230,230" fill="1" layer="-1.00" shape="622.518458,1150.301383 622.262065,1130.142338 653.606921,1130.552424 653.192825,1135.221607 651.802697,1151.070015 622.518458,1150.301383"/>
    <poly id="221231734" type="amenity.parking" color="184,184,179" fill="1" layer="-1.00" shape="1000.472361,961.003856 948.013352,962.267863 949.094492,978.395031 949.990242,991.821480 1002.015241,998.439556 1000.472361,961.003856"/>
    <poly id="221231735" type="amenity.parking" color="184,184,179" fill="1" layer="-1.00" shape="973.829452,1049.313700 988.068930,1053.686107 998.588646,1053.098400 1009.210126,1006.546100 925.067122,992.592070 863.809212,997.468823 865.225181,1001.084482 908.892683,998.480521 908.022374,1002.136290 976.957241,1007.631169 982.695577,1008.920957 973.829452,1049.313700"/>
    <poly id="226853466" type="amenity.police" color="237,199,199" fill="1" layer="-1.00" shape="308.836890,1002.988446 314.895968,1012.050768 365.889014,1026.988215 378.851862,1029.182773 387.640832,997.896781 313.434811,981.969900 308.836890,1002.988446"/>
    <poly id="231490059" type="amenity.parking" color="184,184,179" fill="1" layer="-1.00" shape="591.109171,847.834274 640.907451,851.189113 640.132956,899.610630 590.728529,902.653989 584.733633,896.249503 591.109171,847.834274"/>
    <poly id="231490568" type="amenity.parking" color="184,184,179" fill="1" layer="-1.00" shape="1080.767064,853.424362 1036.982079,852.362351 1035.647337,790.031391 1040.437424,784.065964 1085.782901,780.267055 1080.767064,853.424362"/>
    <poly id="231490571" type="building.yes" color="255,230,230" fill="1" layer="-1.00" shape="1090.866142,669.520721 979.579736,680.836326 993.694374,780.139124 1098.903489,766.297278 1090.866142,669.520721"/>
    <poly id="241104818" type="building.yes" color="255,230,230" fill="1" layer="-1.00" shape="386.977905,1092.180722 420.527771,1095.653011 436.532170,1079.596329 446.022725,1061.473426 435.139675,1054.887517 374.279308,1039.543737 374.960717,1082.762206 386.845952,1082.610835 386.977905,1092.180722"/>
    <poly id="241104818#1" type="tourism.hotel" color="207,245,201" fill="1" layer="-2.00" shape="386.977905,1092.180722 420.527771,1095.653011 436.532170,1079.596329 446.022725,1061.473426 435.139675,1054.887517 374.279308,1039.543737 374.960717,1082.762206 386.845952,1082.610835 386.977905,1092.180722"/>
    <poly id="241104922" type="amenity.parking" color="184,184,179" fill="1" layer="-1.00" shape="257.491956,1065.580996 289.875924,1067.671973 289.858671,1036.276552 257.658852,1032.831682 257.491956,1065.580996"/>
    <poly id="241105043" type="amenity.place_of_worship" color="237,199,199" fill="1" layer="-1.00" shape="213.824913,937.818686 269.642585,955.031796 273.250413,933.793209 219.560472,916.752364 213.824913,937.818686"/>
    <poly id="241105043#1" type="building.mosque" color="255,230,230" fill="1" layer="-1.00" shape="213.824913,937.818686 269.642585,955.031796 273.250413,933.793209 219.560472,916.752364 213.824913,937.818686"/>
    <poly id="241105901" type="building.yes" color="255,230,230" fill="1" layer="-1.00" shape="470.220155,885.775385 479.503868,871.964573 483.222260,886.296743 470.220155,885.775385"/>
    <poly id="241105901#1" type="tourism.hotel" color="207,245,201" fill="1" layer="-2.00" shape="470.220155,885.775385 479.503868,871.964573 483.222260,886.296743 470.220155,885.775385"/>
    <poly id="242009300" type="amenity.bus_station" color="237,199,199" fill="1" layer="-1.00" shape="114.488543,1036.795229 106.230502,1059.898948 100.497896,1072.490463 97.202415,1075.545779 93.562539,1077.663840 88.068241,1079.716935 83.934019,1080.988283 142.904255,1128.991301 164.727463,1103.177700 204.306373,1133.891448 227.412150,1109.900587 230.745258,1101.892864 237.077180,1080.198561 253.421033,1025.186337 269.839746,955.483490 231.787053,944.159101 212.381414,938.379919 219.146330,915.084834 170.770078,900.003753 164.813013,898.163180 162.137009,898.452101 160.833673,898.945083 158.846924,900.355194 156.847659,902.363688 155.108113,904.989250 153.719547,907.488477 151.118090,916.783037 148.133517,927.633434 114.488543,1036.795229"/>
    <poly id="259724739" type="building.yes" color="255,230,230" fill="1" layer="-1.00" shape="510.960084,912.741888 530.328507,910.855855 528.334022,975.788363 546.226666,975.893044 547.445160,967.147925 564.679241,967.748451 565.802777,991.131296 562.541413,995.293875 555.777914,997.362919 517.124236,993.401319 509.398506,984.770018 510.960084,912.741888"/>
    <poly id="259724739#1" type="tourism.hotel" color="207,245,201" fill="1" layer="-2.00" shape="510.960084,912.741888 530.328507,910.855855 528.334022,975.788363 546.226666,975.893044 547.445160,967.147925 564.679241,967.748451 565.802777,991.131296 562.541413,995.293875 555.777914,997.362919 517.124236,993.401319 509.398506,984.770018 510.960084,912.741888"/>
    <poly id="259724741" type="building.yes" color="255,230,230" fill="1" layer="-1.00" shape="724.582975,1001.841073 724.475697,967.245275 747.616112,963.328614 747.773583,1001.878681 724.582975,1001.841073"/>
    <poly id="259724742" type="building.yes" color="255,230,230" fill="1" layer="-1.00" shape="388.904659,707.133350 435.934291,701.870660 430.548874,684.003620 385.062977,681.547321 388.904659,707.133350"/>
    <poly id="259724748" type="building.yes" color="255,230,230" fill="1" layer="-1.00" shape="751.351375,957.609118 747.538569,934.238299 727.892715,937.279678 731.594759,960.651901 751.351375,957.609118"/>
    <poly id="259724749" type="building.yes" color="255,230,230" fill="1" layer="-1.00" shape="821.747900,878.292299 835.682344,878.458728 833.166601,864.399245 820.995007,865.019131 821.747900,878.292299"/>
    <poly id="259724750" type="building.yes" color="255,230,230" fill="1" layer="-1.00" shape="801.971479,917.848890 800.618550,902.544960 820.658304,901.958042 821.026571,918.260438 801.971479,917.848890"/>
    <poly id="259724754" type="building.yes" color="255,230,230" fill="1" layer="-1.00" shape="271.774378,990.299798 293.146208,990.692153 291.331186,1030.087227 269.106762,1028.398517 271.774378,990.299798"/>
    <poly id="259724755" type="building.yes" color="255,230,230" fill="1" layer="-1.00" shape="537.840424,809.250814 537.442496,787.476155 556.678478,788.627282 557.625422,808.423037 537.840424,809.250814"/>
    <poly id="259724756" type="building.yes" color="255,230,230" fill="1" layer="-1.00" shape="450.738718,844.757088 447.664458,827.215127 465.813142,821.300996 471.454652,839.508210 450.738718,844.757088"/>
    <poly id="259724768" type="building.yes" color="255,230,230" fill="1" layer="-1.00" shape="643.087284,769.094209 646.441595,701.718365 612.369125,700.789004 607.601678,756.052227 604.539782,768.775689 608.321106,773.014857 643.087284,769.094209"/>
    <poly id="259724770" type="building.yes" color="255,230,230" fill="1" layer="-1.00" shape="558.911931,846.992003 570.322480,845.938435 574.435676,843.005784 576.614123,838.447094 584.078297,806.712846 579.514922,806.726578 560.717230,806.766289 558.911931,846.992003"/>
    <poly id="259724771" type="building.yes" color="255,230,230" fill="1" layer="-1.00" shape="527.242588,903.472733 522.438668,863.995793 497.472902,867.769888 493.373043,870.957194 491.443697,876.088795 498.478001,907.959861 527.242588,903.472733"/>
    <poly id="259724774" type="building.yes" color="255,230,230" fill="1" layer="-1.00" shape="467.639194,929.146137 489.606707,930.428560 488.986115,940.240660 487.350401,942.322023 484.889383,943.671651 481.915304,944.285570 466.824474,943.491693 467.639194,929.146137"/>
    <poly id="259724775" type="building.yes" color="255,230,230" fill="1" layer="-1.00" shape="801.614207,718.435201 798.832554,701.687104 792.433151,695.952357 768.103227,699.053157 770.415533,715.330852 781.181277,714.263507 782.697951,722.630417 801.614207,718.435201"/>
    <poly id="259724777" type="building.yes" color="255,230,230" fill="1" layer="-1.00" shape="1133.151585,1011.510064 1137.177471,981.824943 1114.469801,979.354424 1112.018723,1006.117107 1110.709412,1007.728966 1113.911613,1011.598947 1115.454131,1010.105991 1133.151585,1011.510064"/>
    <poly id="259724779" type="building.yes" color="255,230,230" fill="1" layer="-1.00" shape="542.382265,1083.079160 539.487081,1102.558230 539.516397,1104.862121 541.178810,1105.671832 544.164271,1105.955112 560.710083,1103.938846 558.252770,1080.240622 542.382265,1083.079160"/>
    <poly id="259724780" type="building.yes" color="255,230,230" fill="1" layer="-1.00" shape="1004.762343,994.228228 1003.326616,961.266747 1019.001218,961.234027 1024.609470,964.973758 1025.429196,990.675777 1022.652807,994.167392 1018.542336,996.523805 1015.232775,996.898143 1004.762343,994.228228"/>
    <poly id="259724781" type="building.yes" color="255,230,230" fill="1" layer="-1.00" shape="316.943234,937.900416 391.683499,947.505954 389.016115,965.874344 404.238941,967.541630 395.242511,996.780780 309.670692,974.340661 311.842500,942.385604 312.727614,939.903888 314.530669,938.307811 316.943234,937.900416"/>
    <poly id="259724782" type="amenity.hospital" color="237,199,199" fill="1" layer="-1.00" shape="764.705558,726.592358 762.089301,705.421971 744.084925,708.442446 719.508722,710.394335 691.382662,708.879608 646.803905,706.444142 645.929410,729.575428 691.920708,731.394709 719.416956,731.709916 742.942047,731.078606 764.705558,726.592358"/>
    <poly id="259724783" type="amenity.parking" color="184,184,179" fill="1" layer="-1.00" shape="602.502574,702.853162 605.881311,692.861983 584.503419,690.441872 578.105405,696.704877 509.956928,692.198940 511.094365,718.251448 480.819519,717.296254 479.825467,745.259184 504.432829,746.552366 503.326051,766.451803 510.897160,766.089584 516.887392,812.497449 535.531457,812.260224 535.730314,785.924836 560.344494,787.760860 560.828372,804.416299 587.580965,804.884706 602.502574,702.853162"/>
    <poly id="259724944" type="building.yes" color="255,230,230" fill="1" layer="-1.00" shape="168.759724,857.688459 226.345309,872.098244 222.854191,908.811616 167.203113,891.253133 164.113708,889.143353 162.554784,886.183192 162.272556,882.220791 168.759724,857.688459"/>
    <poly id="260895298" type="building.yes" color="255,230,230" fill="1" layer="-1.00" shape="1127.910991,800.005863 1126.892199,772.888376 1088.680249,779.953357 1083.190657,854.678690 1124.762948,859.203135 1149.382815,863.100679 1152.307413,862.554006 1154.326163,861.276581 1155.843925,859.418366 1157.256113,855.589577 1158.886688,837.201325 1100.685737,831.369931 1101.649531,827.136930 1158.995994,832.314473 1160.023159,806.854930 1102.862247,802.018446 1102.808731,797.798346 1127.910991,800.005863"/>
    <poly id="260895310" type="building.yes" color="255,230,230" fill="1" layer="-1.00" shape="689.498268,1162.909660 695.205746,1145.134157 682.781491,1140.916231 681.316379,1158.792895 689.498268,1162.909660"/>
    <poly id="260895316" type="building.yes" color="255,230,230" fill="1" layer="-1.00" shape="894.044314,1058.025902 869.626500,1057.327867 867.425042,1003.759619 902.122166,1000.793198 894.044314,1058.025902"/>
    <poly id="260895319" type="amenity.place_of_worship" color="237,199,199" fill="1" layer="-1.00" shape="794.850652,1190.717350 797.000517,1185.494367 797.889780,1183.333902 799.854187,1178.578559 801.427391,1174.747677 802.277633,1172.687411 783.669379,1166.188315 776.181406,1185.758907 794.850652,1190.717350"/>
    <poly id="260895319#1" type="building.mosque" color="255,230,230" fill="1" layer="-1.00" shape="794.850652,1190.717350 797.000517,1185.494367 797.889780,1183.333902 799.854187,1178.578559 801.427391,1174.747677 802.277633,1172.687411 783.669379,1166.188315 776.181406,1185.758907 794.850652,1190.717350"/>
    <poly id="260895342" type="building.yes" color="255,230,230" fill="1" layer="-1.00" shape="786.188243,1131.337587 779.491017,1137.825874 789.798741,1148.307796 786.046480,1159.821390 807.128269,1165.956719 823.762858,1167.761616 826.495874,1142.623744 786.188243,1131.337587"/>
    <poly id="263205600" type="building.yes" color="255,230,230" fill="1" layer="-1.00" shape="1130.637805,682.155110 1127.991202,660.929687 1097.300246,661.318841 1100.151236,684.358487 1130.637805,682.155110"/>
    <poly id="263205602" type="building.yes" color="255,230,230" fill="1" layer="-1.00" shape="1133.179783,703.869298 1131.308463,684.993692 1100.389246,688.033416 1102.260609,706.909020 1133.179783,703.869298"/>
    <poly id="263817296" type="building.yes" color="255,230,230" fill="1" layer="-1.00" shape="868.986457,724.514469 904.044188,720.535413 904.652073,695.413490 901.089872,694.938039 901.339969,683.690524 897.522577,682.952439 897.239176,681.261077 863.092937,695.941160 864.372916,703.125717 866.867519,702.828163 867.708027,707.137977 866.143329,707.678519 866.716889,711.592908 869.087299,711.828685 869.269719,715.880978 866.774977,716.167455 868.986457,724.514469"/>
    <poly id="263817299" type="building.yes" color="255,230,230" fill="1" layer="-1.00" shape="910.091650,719.184649 908.930917,695.204075 927.592817,693.981218 928.970011,719.144408 910.091650,719.184649"/>
    <poly id="263817302" type="building.yes" color="255,230,230" fill="1" layer="-1.00" shape="594.135607,844.206447 614.406069,844.325300 621.609853,811.120991 603.344178,807.841500 594.135607,844.206447"/>
    <poly id="263817303" type="building.yes" color="255,230,230" fill="1" layer="-1.00" shape="1091.294421,665.161575 1089.986605,650.211571 1018.131253,655.255141 1019.445191,670.681426 1091.294421,665.161575"/>
    <poly id="263817307" type="building.yes" color="255,230,230" fill="1" layer="-1.00" shape="618.719661,845.267479 637.917655,845.023347 636.819472,820.454820 622.352099,820.372915 618.719661,845.267479"/>
    <poly id="263817309" type="building.yes" color="255,230,230" fill="1" layer="-1.00" shape="674.800645,808.727558 672.077788,780.767608 652.355938,781.018346 657.183974,808.951529 674.800645,808.727558"/>
    <poly id="263817312" type="building.yes" color="255,230,230" fill="1" layer="-1.00" shape="865.937417,691.462694 859.417439,665.124053 901.186633,640.664870 900.030287,673.371221 865.937417,691.462694"/>
    <poly id="263817318" type="building.yes" color="255,230,230" fill="1" layer="-1.00" shape="928.483342,688.741020 929.329966,661.788174 929.719096,640.856581 921.732850,643.439463 903.978340,643.930723 903.112392,689.196028 928.483342,688.741020"/>
    <poly id="263817320" type="building.yes" color="255,230,230" fill="1" layer="-1.00" shape="932.665389,686.461224 964.719748,683.960617 964.975566,671.571983 969.493003,660.790992 956.361006,659.572878 956.972548,649.018705 934.011814,649.675703 932.665389,686.461224"/>
    <poly id="263817321" type="building.yes" color="255,230,230" fill="1" layer="-1.00" shape="931.595706,690.285691 931.656310,717.282412 957.644473,713.075200 959.944697,711.749862 963.073440,709.029239 966.005556,705.103592 965.521670,689.201489 931.595706,690.285691"/>
    <poly id="263817322" type="building.yes" color="255,230,230" fill="1" layer="-1.00" shape="971.119221,853.231305 1003.099679,852.083235 1002.557185,883.164369 1020.594383,882.747178 1027.597161,877.296499 1026.076258,831.263873 971.627433,834.535990 971.119221,853.231305"/>
    <poly id="263817323" type="building.yes" color="255,230,230" fill="1" layer="-1.00" shape="941.232361,747.094066 980.253345,744.239185 978.557353,724.907155 947.704858,728.433830 944.290199,729.263720 942.219918,732.037382 940.812734,734.669690 941.232361,747.094066"/>
    <poly id="263817326" type="building.yes" color="255,230,230" fill="1" layer="-1.00" shape="858.289456,693.708976 863.683887,725.024930 826.394922,730.206719 824.031267,730.502616 822.352201,729.970034 819.537504,728.067106 818.487262,725.488153 816.113715,714.694927 858.289456,693.708976"/>
    <poly id="263817327" type="building.yes" color="255,230,230" fill="1" layer="-1.00" shape="905.986361,750.521513 904.056466,734.992266 919.133533,732.308275 921.772431,733.061325 923.234307,734.737728 925.498657,736.935695 927.113216,739.529648 928.303784,749.196852 905.986361,750.521513"/>
    <poly id="267991810" type="building.yes" color="255,230,230" fill="1" layer="-1.00" shape="824.584322,992.937541 852.313169,988.608271 854.731107,987.037695 857.130984,983.251715 853.482646,958.538331 841.938153,959.349647 842.235572,965.317005 828.921033,966.361300 830.169400,977.401462 823.958793,978.588170 824.584322,992.937541"/>
    <poly id="267991811" type="building.yes" color="255,230,230" fill="1" layer="-1.00" shape="446.015607,978.619672 452.707446,980.417776 453.017271,978.641320 470.858198,983.388324 470.333830,985.721419 478.803884,987.928950 485.166670,963.874749 482.434206,958.935418 478.627479,956.657449 451.284486,955.687198 450.567998,960.338083 453.694305,961.395027 450.095840,975.476912 447.198037,974.959892 446.015607,978.619672"/>
    <poly id="267991812" type="building.yes" color="255,230,230" fill="1" layer="-1.00" shape="902.739561,878.039225 902.750295,854.287492 888.137239,854.628126 889.699788,878.514978 902.739561,878.039225"/>
    <poly id="267991813" type="building.yes" color="255,230,230" fill="1" layer="-1.00" shape="509.244142,817.480191 505.174508,794.544731 470.599677,801.620591 478.241711,825.828882 509.244142,817.480191"/>
    <poly id="267991814" type="building.yes" color="255,230,230" fill="1" layer="-1.00" shape="936.392361,878.487173 936.081068,853.964060 905.889099,856.330338 905.732091,878.876406 936.392361,878.487173"/>
    <poly id="267991815" type="building.yes" color="255,230,230" fill="1" layer="-1.00" shape="679.567745,907.151998 587.135387,910.831083 583.510120,913.314398 582.055268,915.360213 581.229628,920.145415 578.412819,947.378201 605.339807,947.323729 605.358461,924.236549 607.064772,924.536114 607.273130,947.254827 635.413933,948.381422 641.308131,921.519416 679.726510,920.432722 679.567745,907.151998"/>
    <poly id="267991816" type="building.yes" color="255,230,230" fill="1" layer="-1.00" shape="724.486696,931.650939 742.663827,928.772237 739.502311,906.711447 721.275800,906.499966 724.486696,931.650939"/>
    <poly id="267991817" type="building.yes" color="255,230,230" fill="1" layer="-1.00" shape="816.800164,953.520568 816.715339,922.259034 800.835430,921.995482 802.503393,954.167473 816.800164,953.520568"/>
    <poly id="267991818" type="building.yes" color="255,230,230" fill="1" layer="-1.00" shape="690.312126,1033.583655 737.457131,1031.145409 738.183413,1044.695873 746.141895,1044.705509 744.794637,1018.755374 692.975353,1021.197623 690.312126,1033.583655"/>
    <poly id="267991819" type="building.yes" color="255,230,230" fill="1" layer="-1.00" shape="905.706049,916.498203 905.688902,885.789733 935.719238,885.774074 935.736177,916.471464 905.706049,916.498203"/>
    <poly id="267991820" type="building.yes" color="255,230,230" fill="1" layer="-1.00" shape="495.470644,765.056213 496.819250,749.119689 455.940703,750.083089 460.822569,766.383442 495.470644,765.056213"/>
    <poly id="267991821" type="building.yes" color="255,230,230" fill="1" layer="-1.00" shape="504.425438,787.929505 501.967624,768.950605 462.438300,771.436689 469.651412,796.769333 504.425438,787.929505"/>
    <poly id="267991822" type="building.yes" color="255,230,230" fill="1" layer="-1.00" shape="716.153701,923.581155 714.621983,907.692355 684.609628,906.744478 685.022300,921.772326 716.153701,923.581155"/>
    <poly id="267991824" type="building.yes" color="255,230,230" fill="1" layer="-1.00" shape="563.256661,1103.773509 612.288380,1097.621766 610.388938,1078.968097 561.191539,1080.812533 563.256661,1103.773509"/>
    <poly id="267991829" type="building.yes" color="255,230,230" fill="1" layer="-1.00" shape="903.145042,885.378904 888.373058,885.101180 898.829879,916.840305 903.860052,917.097705 903.145042,885.378904"/>
    <poly id="267991832" type="building.yes" color="255,230,230" fill="1" layer="-1.00" shape="536.340325,903.545302 565.188539,900.087464 569.828555,863.337475 566.439992,858.295692 530.705131,862.073786 536.340325,903.545302"/>
    <poly id="267991833" type="building.yes" color="255,230,230" fill="1" layer="-1.00" shape="494.004848,1067.033200 500.240359,1021.898817 484.718814,1033.163485 476.471748,1040.557911 468.143709,1049.504321 459.343592,1061.724815 494.004848,1067.033200"/>
    <poly id="267991835" type="building.yes" color="255,230,230" fill="1" layer="-1.00" shape="502.453792,1108.745857 526.744828,1113.732099 531.045008,1111.251254 536.187313,1087.866220 533.241758,1083.594283 507.417938,1079.281147 502.453792,1108.745857"/>
    <poly id="267991836" type="building.yes" color="255,230,230" fill="1" layer="-1.00" shape="822.759964,915.934159 845.201668,913.311617 844.014451,906.292056 842.880608,904.268072 840.828127,902.887213 839.394139,901.819765 822.742577,901.876176 822.759964,915.934159"/>