<?xml version="1.0" encoding="UTF-8"?>

<!-- generated on 2022-03-24 21:07:48 by Eclipse SUMO duarouter Version 1.12.0
<configuration xmlns:xsi="http://www.w3.org/2001/XMLSchema-instance" xsi:noNamespaceSchemaLocation="http://sumo.dlr.de/xsd/duarouterConfiguration.xsd">

    <input>
        <net-file value="C:\Users\c0023847\Sumo\2022-03-24-21-07-39\osm.net.xml"/>
        <route-files value="C:\Users\c0023847\Sumo\2022-03-24-21-07-39\osm.passenger.trips.xml"/>
    </input>

    <output>
        <output-file value="C:\Users\c0023847\Sumo\2022-03-24-21-07-39\osm.passenger.trips.xml.tmp"/>
        <write-trips value="true"/>
    </output>

    <time>
        <begin value="0"/>
        <end value="3600"/>
    </time>

    <report>
        <no-warnings value="true"/>
        <ignore-errors value="true"/>
        <no-step-log value="true"/>
    </report>

</configuration>
-->

<routes xmlns:xsi="http://www.w3.org/2001/XMLSchema-instance" xsi:noNamespaceSchemaLocation="http://sumo.dlr.de/xsd/routes_file.xsd">
    <vType id="veh_passenger" vClass="passenger"/>
    <trip id="veh0" type="veh_passenger" depart="0.00" departLane="best" departSpeed="max" from="91792552" to="-146420693#1"/>
    <trip id="veh1" type="veh_passenger" depart="20.97" departLane="best" from="227766295#0" to="146420695"/>
    <trip id="veh2" type="veh_passenger" depart="41.93" departLane="best" from="91792570#0" to="91792565#3"/>
    <trip id="veh3" type="veh_passenger" depart="62.90" departLane="best" from="49175193#3" to="-146420693#2"/>
    <trip id="veh4" type="veh_passenger" depart="83.87" departLane="best" from="146420700" to="522157908"/>
    <trip id="veh6" type="veh_passenger" depart="125.80" departLane="best" from="146420700" to="836780015#2"/>
    <trip id="veh7" type="veh_passenger" depart="146.77" departLane="best" from="91792577#1" to="-146420691"/>
    <trip id="veh8" type="veh_passenger" depart="167.74" departLane="best" from="91792577#0" to="91792569#1"/>
    <trip id="veh10" type="veh_passenger" depart="209.67" departLane="best" from="91792635#9" to="241106954#1"/>
    <trip id="veh11" type="veh_passenger" depart="230.64" departLane="best" departSpeed="max" from="1023965978#0" to="-175192798#0"/>
    <trip id="veh12" type="veh_passenger" depart="251.61" departLane="best" from="91792607#2" to="836780015#3"/>
    <trip id="veh13" type="veh_passenger" depart="272.57" departLane="best" departSpeed="max" from="730175091" to="993988873#1"/>
    <trip id="veh14" type="veh_passenger" depart="293.54" departLane="best" departSpeed="max" from="4856661#0" to="836780012#1"/>
    <trip id="veh17" type="veh_passenger" depart="356.44" departLane="best" from="91792565#3" to="-146420694"/>
    <trip id="veh19" type="veh_passenger" depart="398.38" departLane="best" departSpeed="max" from="1023965978#0" to="146420699#0"/>
    <trip id="veh20" type="veh_passenger" depart="419.34" departLane="best" departSpeed="max" from="1023965978#0" to="227766295#3"/>
    <trip id="veh21" type="veh_passenger" depart="440.31" departLane="best" from="91792551" to="436378154#4"/>
    <trip id="veh22" type="veh_passenger" depart="461.28" departLane="best" departSpeed="max" from="91792552" to="836780016"/>
    <trip id="veh23" type="veh_passenger" depart="482.25" departLane="best" departSpeed="max" from="730175091" to="91792566#1"/>
    <trip id="veh24" type="veh_passenger" depart="503.21" departLane="best" from="91792607#0" to="91792573#4"/>
    <trip id="veh25" type="veh_passenger" depart="524.18" departLane="best" from="241074562#1" to="227766295#0"/>
    <trip id="veh26" type="veh_passenger" depart="545.15" departLane="best" from="146420699#0" to="91792635#5"/>
    <trip id="veh27" type="veh_passenger" depart="566.11" departLane="best" departSpeed="max" from="91792552" to="4856688#1"/>
    <trip id="veh28" type="veh_passenger" depart="587.08" departLane="best" from="91792635#0" to="5087847#1"/>
    <trip id="veh29" type="veh_passenger" depart="608.05" departLane="best" departSpeed="max" from="175192798#0" to="146420702"/>
    <trip id="veh30" type="veh_passenger" depart="629.02" departLane="best" from="836780012#0" to="175192798#1"/>
    <trip id="veh31" type="veh_passenger" depart="649.98" departLane="best" from="836780013#5" to="91792631#0"/>
    <trip id="veh32" type="veh_passenger" depart="670.95" departLane="best" from="4856688#1" to="146420695"/>
    <trip id="veh34" type="veh_passenger" depart="712.88" departLane="best" departSpeed="max" from="1023965978#0" to="-146420696#0"/>
    <trip id="veh35" type="veh_passenger" depart="733.85" departLane="best" from="91792573#7" to="49175193#4"/>
    <trip id="veh36" type="veh_passenger" depart="754.82" departLane="best" departSpeed="max" from="1023965978#0" to="4856661#2"/>
    <trip id="veh37" type="veh_passenger" depart="775.79" departLane="best" from="99684112#1" to="522157910#2"/>
    <trip id="veh40" type="veh_passenger" depart="838.69" departLane="best" departSpeed="max" from="175192798#0" to="91792551"/>
    <trip id="veh41" type="veh_passenger" depart="859.65" departLane="best" from="5087847#2" to="91792635#9"/>
    <trip id="veh42" type="veh_passenger" depart="880.62" departLane="best" departSpeed="max" from="91792608#0" to="175192798#1"/>
    <trip id="veh43" type="veh_passenger" depart="901.59" departLane="best" from="522157910#1" to="110240646#0"/>
    <trip id="veh44" type="veh_passenger" depart="922.56" departLane="best" from="91792635#0" to="91792607#7"/>
    <trip id="veh45" type="veh_passenger" depart="943.52" departLane="best" departSpeed="max" from="24097896#0" to="91792543#2"/>
    <trip id="veh47" type="veh_passenger" depart="985.46" departLane="best" from="-146420699#1" to="91792635#2"/>
    <trip id="veh48" type="veh_passenger" depart="1006.43" departLane="best" from="91792608#1" to="91792598"/>
    <trip id="veh49" type="veh_passenger" depart="1027.39" departLane="best" from="24097896#1" to="-146420696#0"/>
    <trip id="veh50" type="veh_passenger" depart="1048.36" departLane="best" departSpeed="max" from="91792608#0" to="91792635#6"/>
    <trip id="veh51" type="veh_passenger" depart="1069.33" departLane="best" departSpeed="max" from="1023965978#0" to="5087847#5"/>
    <trip id="veh52" type="veh_passenger" depart="1090.29" departLane="best" departSpeed="max" from="1023965978#0" to="91792573#10"/>
    <trip id="veh53" type="veh_passenger" depart="1111.26" departLane="best" from="5087847#6" to="836780012#1"/>
    <trip id="veh54" type="veh_passenger" depart="1132.23" departLane="best" departSpeed="max" from="175192798#0" to="91792607#7"/>
    <trip id="veh55" type="veh_passenger" depart="1153.20" departLane="best" from="49175193#4" to="146420693#2"/>
    <trip id="veh56" type="veh_passenger" depart="1174.16" departLane="best" departSpeed="max" from="730175091" to="91792572#3"/>
    <trip id="veh57" type="veh_passenger" depart="1195.13" departLane="best" from="99684112#1" to="91792560"/>
    <trip id="veh58" type="veh_passenger" depart="1216.10" departLane="best" from="1033471647#0" to="146420695"/>
    <trip id="veh59" type="veh_passenger" depart="1237.06" departLane="best" departSpeed="max" from="1023965978#0" to="91792543#0"/>
    <trip id="veh62" type="veh_passenger" depart="1299.97" departLane="best" from="146420699#1" to="-91792608#0"/>
    <trip id="veh63" type="veh_passenger" depart="1320.93" departLane="best" from="91792635#3" to="836780013#5"/>
    <trip id="veh64" type="veh_passenger" depart="1341.90" departLane="best" from="5087847#5" to="91792573#6"/>
    <trip id="veh65" type="veh_passenger" depart="1362.87" departLane="best" from="91792577#0" to="110240646#1"/>
    <trip id="veh66" type="veh_passenger" depart="1383.83" departLane="best" from="49175193#4" to="5087847#2"/>
    <trip id="veh68" type="veh_passenger" depart="1425.77" departLane="best" from="993988873#0" to="-175192798#0"/>
    <trip id="veh69" type="veh_passenger" depart="1446.74" departLane="best" departSpeed="max" from="146420696#0" to="498376498"/>
    <trip id="veh70" type="veh_passenger" depart="1467.70" departLane="best" from="49175193#3" to="227766295#4"/>
    <trip id="veh71" type="veh_passenger" depart="1488.67" departLane="best" from="5087847#1" to="91792607#7"/>
    <trip id="veh72" type="veh_passenger" depart="1509.64" departLane="best" departSpeed="max" from="730175091" to="-146420696#0"/>
    <trip id="veh76" type="veh_passenger" depart="1593.51" departLane="best" from="5087847#7" to="146420695"/>
    <trip id="veh77" type="veh_passenger" depart="1614.47" departLane="best" departSpeed="max" from="4856661#0" to="993988874#1"/>
    <trip id="veh78" type="veh_passenger" depart="1635.44" departLane="best" from="5087847#2" to="49175193#4"/>
    <trip id="veh79" type="veh_passenger" depart="1656.41" departLane="best" departSpeed="max" from="730175091" to="91792570#2"/>
    <trip id="veh80" type="veh_passenger" depart="1677.38" departLane="best" departSpeed="max" from="146420693#0" to="241074612#0"/>
    <trip id="veh82" type="veh_passenger" depart="1719.31" departLane="best" departSpeed="max" from="730175091" to="91792573#0"/>
    <trip id="veh83" type="veh_passenger" depart="1740.28" departLane="best" from="-4856688#2" to="836780015#1"/>
    <trip id="veh84" type="veh_passenger" depart="1761.24" departLane="best" from="522157910#1" to="91792607#5"/>
    <trip id="veh85" type="veh_passenger" depart="1782.21" departLane="best" departSpeed="max" from="146420693#0" to="91792645#1"/>
    <trip id="veh86" type="veh_passenger" depart="1803.18" departLane="best" departSpeed="max" from="1023965978#0" to="110240646#1"/>
    <trip id="veh89" type="veh_passenger" depart="1866.08" departLane="best" from="730175090#1" to="91792635#4"/>
    <trip id="veh92" type="veh_passenger" depart="1928.98" departLane="best" from="241074562#1" to="91792573#10"/>
    <trip id="veh93" type="veh_passenger" depart="1949.95" departLane="best" departSpeed="max" from="1023965978#0" to="5087847#1"/>
    <trip id="veh94" type="veh_passenger" depart="1970.92" departLane="best" departSpeed="max" from="1023965978#0" to="146420695"/>
    <trip id="veh95" type="veh_passenger" depart="1991.88" departLane="best" from="91792608#1" to="91792615"/>
    <trip id="veh97" type="veh_passenger" depart="2033.82" departLane="best" from="91792590#1" to="91792569#1"/>
    <trip id="veh98" type="veh_passenger" depart="2054.78" departLane="best" from="836780017#0" to="993988874#1"/>
    <trip id="veh99" type="veh_passenger" depart="2075.75" departLane="best" departSpeed="max" from="91792552" to="-146420693#0"/>
    <trip id="veh100" type="veh_passenger" depart="2096.72" departLane="best" from="91792578#0" to="241074612#1"/>
    <trip id="veh101" type="veh_passenger" depart="2117.69" departLane="best" departSpeed="max" from="91792552" to="91792635#4"/>
    <trip id="veh102" type="veh_passenger" depart="2138.65" departLane="best" from="110240646#1" to="-175192798#1"/>
    <trip id="veh103" type="veh_passenger" depart="2159.62" departLane="best" departSpeed="max" from="1023965978#0" to="836780013#0"/>
    <trip id="veh104" type="veh_passenger" depart="2180.59" departLane="best" from="175192798#1" to="836780015#3"/>
    <trip id="veh106" type="veh_passenger" depart="2222.52" departLane="best" from="91792543#2" to="175192798#1"/>
    <trip id="veh107" type="veh_passenger" depart="2243.49" departLane="best" from="522157908" to="91792635#0"/>
    <trip id="veh108" type="veh_passenger" depart="2264.46" departLane="best" from="91792607#1" to="-175192772#1"/>
    <trip id="veh109" type="veh_passenger" depart="2285.42" departLane="best" from="49175193#4" to="227766295#3"/>
    <trip id="veh110" type="veh_passenger" depart="2306.39" departLane="best" from="-146420691" to="91792573#2"/>
    <trip id="veh111" type="veh_passenger" depart="2327.36" departLane="best" from="91792551" to="175192798#1"/>
    <trip id="veh112" type="veh_passenger" depart="2348.33" departLane="best" from="91792570#2" to="836780012#1"/>
    <trip id="veh113" type="veh_passenger" depart="2369.29" departLane="best" from="495771093#1" to="-146420693#0"/>
    <trip id="veh114" type="veh_passenger" depart="2390.26" departLane="best" departSpeed="max" from="1023965978#0" to="91792622#0"/>
    <trip id="veh116" type="veh_passenger" depart="2432.19" departLane="best" from="91792590#1" to="836780015#0"/>
    <trip id="veh117" type="veh_passenger" depart="2453.16" departLane="best" from="146420691" to="-91792608#0"/>
    <trip id="veh119" type="veh_passenger" depart="2495.10" departLane="best" from="91792573#8" to="91792607#7"/>
    <trip id="veh120" type="veh_passenger" depart="2516.06" departLane="best" from="91792629" to="146420693#2"/>
    <trip id="veh121" type="veh_passenger" depart="2537.03" departLane="best" from="175192772#1" to="-175192798#0"/>
    <trip id="veh122" type="veh_passenger" depart="2558.00" departLane="best" from="91792573#3" to="91792622#1"/>
    <trip id="veh123" type="veh_passenger" depart="2578.96" departLane="best" departSpeed="max" from="146420693#0" to="91792635#2"/>
    <trip id="veh124" type="veh_passenger" depart="2599.93" departLane="best" from="91792577#1" to="91792622#0"/>
    <trip id="veh126" type="veh_passenger" depart="2641.87" departLane="best" from="91792576" to="91792607#7"/>
    <trip id="veh127" type="veh_passenger" depart="2662.83" departLane="best" from="91792577#1" to="227766295#0"/>
    <trip id="veh128" type="veh_passenger" depart="2683.80" departLane="best" departSpeed="max" from="91792608#0" to="91792607#7"/>
    <trip id="veh129" type="veh_passenger" depart="2704.77" departLane="best" from="146420702" to="91792578#2"/>
    <trip id="veh130" type="veh_passenger" depart="2725.73" departLane="best" from="5087847#3" to="241074762#0"/>
    <trip id="veh131" type="veh_passenger" depart="2746.70" departLane="best" from="91792573#8" to="146420695"/>
    <trip id="veh134" type="veh_passenger" depart="2809.60" departLane="best" departSpeed="max" from="91792552" to="4856688#2"/>
    <trip id="veh137" type="veh_passenger" depart="2872.50" departLane="best" departSpeed="max" from="1023965978#0" to="498376498"/>
    <trip id="veh139" type="veh_passenger" depart="2914.44" departLane="best" from="836780017#0" to="522157910#0"/>
    <trip id="veh140" type="veh_passenger" depart="2935.41" departLane="best" from="4856661#2" to="836780013#5"/>
    <trip id="veh141" type="veh_passenger" depart="2956.37" departLane="best" departSpeed="max" from="175192798#0" to="91792570#0"/>
    <trip id="veh142" type="veh_passenger" depart="2977.34" departLane="best" from="-146420690" to="91792635#11"/>
    <trip id="veh143" type="veh_passenger" depart="2998.31" departLane="best" departSpeed="max" from="730175091" to="91792570#3"/>
    <trip id="veh144" type="veh_passenger" depart="3019.28" departLane="best" from="91792570#2" to="91792565#1"/>
    <trip id="veh145" type="veh_passenger" depart="3040.24" departLane="best" departSpeed="max" from="91792552" to="241106954#1"/>
    <trip id="veh147" type="veh_passenger" depart="3082.18" departLane="best" from="4856688#2" to="241074612#0"/>
    <trip id="veh148" type="veh_passenger" depart="3103.14" departLane="best" from="110240646#0" to="49175193#3"/>
    <trip id="veh149" type="veh_passenger" depart="3124.11" departLane="best" from="91792635#4" to="91792565#3"/>
    <trip id="veh150" type="veh_passenger" depart="3145.08" departLane="best" from="-146420690" to="241074561#2"/>
    <trip id="veh151" type="veh_passenger" depart="3166.05" departLane="best" from="497767730#0" to="836780015#0"/>
    <trip id="veh152" type="veh_passenger" depart="3187.01" departLane="best" departSpeed="max" from="91792552" to="5087847#2"/>
    <trip id="veh153" type="veh_passenger" depart="3207.98" departLane="best" from="5087847#0" to="146420695"/>
    <trip id="veh154" type="veh_passenger" depart="3228.95" departLane="best" from="5087847#5" to="91792631#1"/>
    <trip id="veh156" type="veh_passenger" depart="3270.88" departLane="best" departSpeed="max" from="1023965978#0" to="522157910#0"/>
    <trip id="veh157" type="veh_passenger" depart="3291.85" departLane="best" from="91792543#2" to="241106954#1"/>
    <trip id="veh158" type="veh_passenger" depart="3312.82" departLane="best" from="91792578#1" to="91792573#1"/>
    <trip id="veh160" type="veh_passenger" depart="3354.75" departLane="best" departSpeed="max" from="146420696#0" to="91792569#1"/>
    <trip id="veh161" type="veh_passenger" depart="3375.72" departLane="best" from="522157910#0" to="146420700"/>
    <trip id="veh162" type="veh_passenger" depart="3396.68" departLane="best" departSpeed="max" from="91792552" to="-146420691"/>
    <trip id="veh165" type="veh_passenger" depart="3459.59" departLane="best" from="522157910#4" to="-146420696#0"/>
    <trip id="veh166" type="veh_passenger" depart="3480.55" departLane="best" from="175192772#1" to="91792607#4"/>
    <trip id="veh167" type="veh_passenger" depart="3501.52" departLane="best" from="5087847#3" to="91792577#1"/>
    <trip id="veh168" type="veh_passenger" depart="3522.49" departLane="best" departSpeed="max" from="91792552" to="993988874#1"/>
    <trip id="veh170" type="veh_passenger" depart="3564.42" departLane="best" from="91792622#2" to="836780017#0"/>
    <trip id="veh171" type="veh_passenger" depart="3585.39" departLane="best" from="91792590#0" to="836780012#0"/>
</routes>
